
     RDKit          3D

 44 47  0  0  0  0  0  0  0  0999 V2000
    4.8200   -0.4460   15.6410 C   0  0  0  0  0  0  0  0  0  0  0  0
    5.3380   -1.5960   16.5180 C   0  0  0  0  0  0  0  0  0  0  0  0
    4.7380   -2.8460   16.0410 N   0  0  0  0  0  0  0  0  0  0  0  0
    5.5780   -4.0310   16.3220 C   0  0  0  0  0  0  0  0  0  0  0  0
    4.8280   -5.3230   15.8890 C   0  0  0  0  0  0  0  0  0  0  0  0
    3.4610   -5.4530   16.5930 C   0  0  0  0  0  0  0  0  0  0  0  0
    2.6450   -4.1530   16.3150 C   0  0  0  0  0  0  0  0  0  0  0  0
    2.6850   -6.6860   16.1660 C   0  0  0  0  0  0  0  0  0  0  0  0
    2.2930   -4.0120   14.8260 C   0  0  0  0  0  0  0  0  0  0  0  0
    3.4830   -2.9590   16.8210 C   0  0  0  0  0  0  0  0  0  0  0  0
    1.4340   -5.2770   14.5060 C   0  0  0  0  0  0  0  0  0  0  0  0
    2.2720   -6.5480   14.7110 C   0  0  0  0  0  0  0  0  0  0  0  0
    6.8480   -3.9550   15.5210 C   0  0  0  0  0  0  0  0  0  0  0  0
    7.8860   -4.4650   16.2330 N   0  0  0  0  0  0  0  0  0  0  0  0
    7.7200   -4.9330   17.0750 H   0  0  0  0  0  0  0  0  0  0  0  0
    6.8300   -3.5380   14.3450 O   0  0  0  0  0  0  0  0  0  0  0  0
    9.2890   -4.5340   15.7600 C   0  0  0  0  0  0  0  0  0  0  0  0
    9.8340   -3.1580   15.4200 C   0  0  0  0  0  0  0  0  0  0  0  0
    9.3340   -5.4090   14.4700 C   0  0  0  0  0  0  0  0  0  0  0  0
   10.1210   -5.1180   16.9370 C   0  0  0  0  0  0  0  0  0  0  0  0
    5.5120   -0.3020   14.2830 C   0  0  0  0  0  0  0  0  0  0  0  0
    4.7580    0.7430   13.6060 N   0  0  0  0  0  0  0  0  0  0  0  0
    3.8790    0.3930   12.6450 C   0  0  0  0  0  0  0  0  0  0  0  0
    3.7100   -0.7870   12.3060 O   0  0  0  0  0  0  0  0  0  0  0  0
    4.8790    1.6810   13.8670 H   0  0  0  0  0  0  0  0  0  0  0  0
    3.1980    1.4880   11.9920 C   0  0  0  0  0  0  0  0  0  0  0  0
    3.9390    2.5960   11.5220 C   0  0  0  0  0  0  0  0  0  0  0  0
    3.3240    3.6870   10.9180 C   0  0  0  0  0  0  0  0  0  0  0  0
    1.9510    3.6590   10.7530 C   0  0  0  0  0  0  0  0  0  0  0  0
    1.2060    2.5700   11.2290 C   0  0  0  0  0  0  0  0  0  0  0  0
    1.8060    1.4600   11.8290 C   0  0  0  0  0  0  0  0  0  0  0  0
    0.9350    0.3430   12.3340 C   0  0  0  0  0  0  0  0  0  0  0  0
   -0.1640    2.6190   11.2010 O   0  0  0  0  0  0  0  0  0  0  0  0
   -0.4380    3.3740   10.6940 H   0  0  0  0  0  0  0  0  0  0  0  0
    6.9320    0.1830   14.3100 C   0  0  0  0  0  0  0  0  0  0  0  0
    7.7470   -0.2420   12.7580 S   0  0  0  0  0  0  0  0  0  0  0  0
    7.7040    1.2030   11.8200 C   0  0  0  0  0  0  0  0  0  0  0  0
    7.9680    1.0620   10.4640 C   0  0  0  0  0  0  0  0  0  0  0  0
    7.9720    2.2040    9.6860 C   0  0  0  0  0  0  0  0  0  0  0  0
    7.7140    3.4510   10.2640 C   0  0  0  0  0  0  0  0  0  0  0  0
    7.4430    3.5800   11.6300 C   0  0  0  0  0  0  0  0  0  0  0  0
    7.4360    2.4280   12.4120 C   0  0  0  0  0  0  0  0  0  0  0  0
    5.0320    0.7290   16.4330 O   0  0  0  0  0  0  0  0  0  0  0  0
    5.9740    0.7720   16.5370 H   0  0  0  0  0  0  0  0  0  0  0  0
  2  1  1  0
  3  2  1  0
  4  3  1  0
  5  4  1  0
  6  5  1  0
  7  6  1  0
  8  6  1  0
  9  7  1  0
 10  7  1  0
 10  3  1  0
 11  9  1  0
 12  8  1  0
 12 11  1  0
 13  4  1  0
 14 13  1  0
 15 14  1  0
 16 13  2  0
 17 14  1  0
 18 17  1  0
 19 17  1  0
 20 17  1  0
 21  1  1  0
 22 21  1  0
 23 22  1  0
 24 23  2  0
 25 22  1  0
 26 23  1  0
 27 26  2  0
 28 27  1  0
 29 28  2  0
 30 29  1  0
 31 30  2  0
 31 26  1  0
 32 31  1  0
 33 30  1  0
 34 33  1  0
 35 21  1  0
 36 35  1  0
 37 36  1  0
 38 37  2  0
 39 38  1  0
 40 39  2  0
 41 40  1  0
 42 41  2  0
 42 37  1  0
 43  1  1  0
 44 43  1  0
M  END
$$$$
